190

S	-2.789750	6.611468	-0.768648
A	-0.440158	2.425299	0.012213
P	-5.035275	7.211521	1.556061
S	-5.718930	3.622467	2.302450
T	-1.670090	2.322090	3.347086
P	-8.588013	2.787437	5.241336
S	-7.088950	-0.508309	6.224200
A	-2.296458	0.092560	6.794615
P	-8.452151	-1.869608	8.547948
S	-5.437463	-3.755541	9.585252
C	-2.387748	-0.774370	10.133264
P	-5.745007	-6.605583	12.904580
S	-2.097488	-6.491863	13.781691
A	-0.736756	-1.822475	13.788557
P	-0.636376	-8.475674	16.523147
S	2.293398	-6.198875	17.028850
A	0.720169	-1.596840	17.046633
P	4.814386	-6.924145	19.617914
S	5.930220	-3.367355	19.971581
A	2.003950	-0.505750	20.201124
P	8.325436	-2.780189	22.910236
S	7.312827	0.759347	23.477795
G	2.376955	1.364590	23.547052
P	8.848108	2.713466	26.128731
S	6.028501	5.149637	26.677268
G	1.574809	2.938546	26.760628
P	6.202361	7.549893	28.913981
S	2.508766	8.134926	29.306991
T	1.268353	4.001299	30.047815
P	1.655565	10.838970	32.660053
S	-1.631736	9.280934	33.419584
G	-1.347114	4.315923	33.475547
P	-3.707937	10.729808	35.467162
S	-5.579089	7.594027	36.062254
C	-2.461666	4.698648	36.683259
P	-8.778309	7.930632	39.455721
S	-8.597190	4.322157	40.183214
G	-3.864106	2.801238	40.322133
P	-10.888335	2.502249	42.505704
S	-8.561676	-0.370305	43.071468
A	-4.057071	1.405076	43.532215
P	-9.548767	-2.604116	46.029334
S	-6.067474	-3.635945	46.859108
G	-2.903398	0.198558	47.002943
P	-5.424843	-5.890153	49.635469
S	-1.894454	-4.807454	50.377429
G	-1.356655	0.136593	50.327388
P	-0.116780	-6.168747	52.781078
S	2.339430	-3.358979	53.238789
T	-0.511178	-0.065460	53.684881
P	4.928516	-3.564840	56.108567
S	5.373346	0.153776	56.429368
T	1.169479	1.245268	56.985635
P	7.731166	1.661440	59.102660
S	5.969156	4.977455	59.274990
T	1.931674	3.502664	60.110375
P	7.374879	7.292941	61.806258
S	4.128702	9.012373	62.326774
C	1.389960	5.807455	63.172228
P	3.634253	12.035520	64.896850
S	-0.105490	11.685482	65.355505
T	-0.175999	7.447542	66.454814
P	-2.082185	14.184499	68.078597
S	-4.826900	11.738051	68.823877
A	-2.821340	7.385870	69.655982
P	-7.086297	12.501493	71.086007
S	-8.058768	8.973109	71.799815
T	-4.150616	7.370539	72.953853
P	-11.057275	8.729431	74.998721
S	-9.935943	5.378768	76.150151
G	-4.985311	5.133098	76.557730
P	-11.742970	3.668862	78.251145
S	-8.886046	1.535203	79.238724
C	-5.702661	4.368488	79.810490
P	-9.132482	-0.987425	82.331295
S	-5.436760	-1.152182	83.128158
T	-4.711185	3.151668	83.478549
P	-4.622165	-3.155790	86.138908
S	-1.574520	-1.173193	86.878009
C	-2.977930	2.891105	86.929362
P	0.537786	-1.883689	89.625936
S	2.082562	1.542526	90.079327
C	-1.315507	4.176431	90.138625
P	4.342341	2.229916	92.713713
S	3.772191	5.960073	93.016797
C	-0.508356	6.308280	93.223772
P	5.888793	8.291130	96.069787
S	3.329496	11.031542	96.231742
A	-1.055915	8.933910	96.384739
P	3.794102	13.090267	98.390011
S	0.212093	13.973501	98.721146
C	-1.791285	10.247391	99.489667
P	-0.565747	17.400156	101.806384
S	-4.040841	16.306738	102.363623
G	-4.259056	11.364817	102.876405
S	-10.051526	4.251669	103.115115
C	-6.262645	6.230566	102.652176
P	-12.901000	4.374075	99.409878
S	-11.751709	7.743126	98.454934
G	-6.796610	8.050448	98.751945
P	-12.898704	9.501578	95.928363
S	-9.953441	11.807168	95.545570
T	-6.783131	8.792017	95.363909
P	-10.268150	14.228691	91.896000
S	-6.589848	14.449792	91.413767
G	-4.388728	10.026496	91.982980
P	-5.100854	16.235719	88.621764
S	-1.843664	14.349862	88.476717
G	-2.454258	9.434726	88.923932
P	0.536917	15.077000	85.829649
S	2.236043	11.717307	85.721935
G	-0.986217	7.933764	85.917010
P	5.225365	11.109635	83.566045
S	4.775050	7.399815	83.425428
A	0.029198	6.476045	82.894740
P	6.895838	5.682830	80.729502
S	4.507150	2.886107	80.141113
G	-0.190410	4.439076	79.633512
P	5.490169	0.340562	78.363870
S	2.018588	-0.699659	77.618291
C	0.099607	2.996499	76.549084
P	1.301359	-3.956631	74.770502
S	-2.127719	-2.790796	73.786226
A	-1.886900	2.010356	73.046679
P	-3.734427	-4.326901	71.364000
S	-5.926494	-1.430940	70.520124
T	-2.854359	1.567076	69.653770
P	-8.704808	-1.965752	67.427327
S	-8.808500	1.657870	66.460950
A	-4.239198	3.293488	66.139661
P	-10.866764	2.483673	63.331390
S	-8.899981	5.510786	62.414095
G	-3.989232	4.741841	62.579730
P	-10.018141	7.877682	59.748959
S	-6.622529	9.329402	59.159200
A	-3.390661	5.696410	59.260012
P	-6.052180	11.757242	56.439896
S	-2.413026	10.958454	56.062044
A	-1.859413	6.126460	56.055813
P	-0.355664	12.698007	53.541129
S	2.188070	9.963343	53.268579
A	-0.123289	5.695299	52.958231
P	4.199098	10.445456	51.069881
S	4.897238	6.848726	50.524328
C	1.056797	5.065593	49.777388
P	7.316239	5.837309	48.148699
S	6.004533	2.361695	47.419331
C	1.827206	3.009766	46.631928
P	7.635985	-0.008235	44.642949
S	4.604295	-2.182773	44.008750
T	1.738197	1.020489	43.174495
P	5.057798	-4.662660	41.291200
S	1.447968	-4.680299	40.433851
C	0.509204	-0.525566	39.845937
P	0.221139	-7.574923	36.972437
S	-2.797967	-5.606511	36.201784
G	-1.750797	-0.744886	36.151083
P	-5.055176	-6.719288	34.135322
S	-6.415634	-3.333328	33.526798
C	-2.884416	-0.953415	32.933780
P	-9.479733	-2.755424	30.442452
S	-8.631096	0.843607	29.798474
A	-3.788598	1.175404	29.493507
P	-10.107626	2.113500	27.492371
S	-7.450781	4.594893	26.780902
C	-3.874380	2.273926	26.223784
P	-7.887996	6.998069	24.220961
S	-4.248676	7.712438	23.460637
C	-2.538276	3.798590	22.966673
P	-3.114102	10.155775	20.505602
S	0.355423	8.733363	19.995476
T	-0.793263	4.542597	19.457147
P	2.692928	10.068724	17.220455
S	4.699678	6.904594	16.923585
T	1.391177	4.123998	16.218066
P	7.563572	6.591586	14.345677
S	7.402477	2.843143	14.120963
T	3.155055	2.453454	13.129982
P	10.067968	1.159258	11.064495
S	7.882783	-1.772833	10.402007
G	3.113882	-0.444191	9.922045
P	8.633229	-4.246736	8.374600
S	5.141430	-5.537287	7.846761
T	3.216253	-1.769710	6.718785
P	4.646806	-8.610089	5.039528
S	1.133131	-7.655321	4.136279
A	0.991764	-2.852367	3.382910
P	-0.421541	-9.316872	1.763559
S	-2.848118	-6.596525	0.977968
T	-0.035655	-3.380030	0.019816
